Circuit: * C:\Users\kimiy\repos\PingerProject\Simulations\Prelim-Sim.asc

Direct Newton iteration for .op point succeeded.

Date: Sat Nov 05 23:09:07 2022
Total elapsed time: 0.686 seconds.

tnom = 27
temp = 27
method = modified trap
totiter = 131026
traniter = 131023
tranpoints = 64013
accept = 50013
rejected = 14000
matrix size = 7
fillins = 1
solver = Normal
Matrix Compiler1: 340 bytes object code size  0.1/0.1/[0.1]
Matrix Compiler2: 477 bytes object code size  0.1/0.1/[0.1]

